Version 4
SHEET 1 880 680
WIRE 192 16 64 16
WIRE 320 16 192 16
WIRE 64 32 64 16
WIRE 192 32 192 16
WIRE 320 32 320 16
WIRE 64 128 64 96
WIRE 64 128 -192 128
WIRE 192 144 192 112
WIRE 320 144 320 112
WIRE 640 144 320 144
WIRE -192 160 -192 128
WIRE 64 176 64 128
WIRE 320 176 320 144
WIRE 640 176 640 144
WIRE -192 272 -192 240
WIRE 64 272 64 240
WIRE 144 272 64 272
WIRE 288 272 224 272
WIRE 320 272 320 256
WIRE 320 272 288 272
WIRE 288 288 288 272
WIRE 640 288 640 256
WIRE 288 368 288 352
FLAG 288 368 0
FLAG -192 272 0
FLAG 192 144 0
FLAG 640 288 0
FLAG 640 144 VOUT
FLAG -192 128 VIN
SYMBOL cap 48 176 R0
SYMATTR InstName C1
SYMATTR Value 1µ
SYMBOL cap 48 32 R0
SYMATTR InstName C2
SYMATTR Value 100n
SYMBOL res 240 256 R90
WINDOW 0 0 56 VBottom 2
WINDOW 3 32 56 VTop 2
SYMATTR InstName R2
SYMATTR Value 5.6k
SYMBOL cap 272 288 R0
SYMATTR InstName C3
SYMATTR Value 120n
SYMBOL voltage -192 144 R0
WINDOW 123 24 152 Left 2
WINDOW 39 24 124 Left 2
SYMATTR InstName V1
SYMATTR Value SINE(2 1)
SYMATTR Value2 AC 1
SYMATTR SpiceLine Rser=0
SYMBOL res 304 16 R0
SYMATTR InstName R3
SYMATTR Value {TONESET}
SYMBOL res 304 160 R0
SYMATTR InstName R4
SYMATTR Value {10k - TONESET}
SYMBOL res 176 16 R0
SYMATTR InstName R1
SYMATTR Value 1.2k
SYMBOL res 624 160 R0
SYMATTR InstName R5
SYMATTR Value 1Meg
TEXT -98 392 Left 2 !.ac dec 20 1 25k
TEXT -96 424 Left 2 !.step param TONESET 1 10.001k 1k
